LTspice 24.1.10 for Windows
Circuit: C:\Users\jpulu\OneDrive\Área de Trabalho\TCC\circuit_filter_1.net
Start Time: Mon Dec 15 17:05:43 2025
solver = Normal
Maximum thread count: 12
tnom = 27
temp = 27
method = modified trap
CompressTranOnly = false
Compress1stOrder = false
Compress2ndOrder = false
Direct Newton iteration failed to find .op point.  (Use ".option noopiter" to skip.)
Starting Gmin stepping
Gmin = 10
Gmin = 1.07374
Gmin = 0.115292
Gmin = 0.0123794
Gmin = 0.00132923
vernier = 0.5
vernier = 0.25
vernier = 0.125
Gmin = 0.000604946
vernier = 0.0625
vernier = 0.03125
vernier = 0.015625
vernier = 0.0078125
Gmin = 0.000599087
vernier = 0.00390625
vernier = 0.00520833
Gmin = 0.000593847
vernier = 0.00694444
vernier = 0.00925925
Gmin = 0.000584057
vernier = 0.0123457
Gmin = 0.000568516
vernier = 0.0164609
vernier = 0.0219478
Gmin = 0.000543969
vernier = 0.0292638
vernier = 0.0390184
Gmin = 0.000507265
vernier = 0.0520245
Gmin = 0.000452997
vernier = 0.0693659
vernier = 0.0924879
Gmin = 0.000376617
vernier = 0.123317
vernier = 0.164423
Gmin = 0.000281516
vernier = 0.21923
vernier = 0.109615
Gmin = 0.000201345
vernier = 0.0548076
vernier = 0.0274038
vernier = 0.0137019
vernier = 0.00685095
Gmin = 0.000200315
vernier = 0.0091346
Gmin = 0.000196244
vernier = 0.0121795
vernier = 0.0162393
Gmin = 0.000189599
vernier = 0.0216524
vernier = 0.0288698
Gmin = 0.000179474
vernier = 0.0384931
Gmin = 0.000164647
vernier = 0.0513241
vernier = 0.0684321
Gmin = 0.000142516
vernier = 0.0912428
vernier = 0.121657
Gmin = 0.000113327
vernier = 0.162209
Gmin = 7.91959e-05
vernier = 0.216279
vernier = 0.288372
Gmin = 4.37076e-05
vernier = 0.384496
vernier = 0.512661
Gmin = 1.72262e-05
vernier = 0.25633
vernier = 0.128165
vernier = 0.0640826
vernier = 0.0320413
Gmin = 1.75559e-05
vernier = 0.0160207
vernier = 0.00801033
vernier = 0.00400516
vernier = 0.00200258
vernier = 0.00100129
vernier = 0.000500645
Gmin = 1.75208e-05
Gmin = 0
Gmin stepping failed

Starting source stepping with srcstepmethod=0
Source Step = 3.0303%
vernier = 0.25
Source Step = 0.0828598%
Source Step = 0.201231%
Source Step = 0.319602%
Source Step = 0.437973%
Source Step = 0.556345%
vernier = 0.00585938
Source Step = 0.710227%
Source Step = 0.887784%
Source Step = 1.06534%
Source Step = 1.2429%
Source Step = 1.42045%
vernier = 0.00878906
Source Step = 1.6424%
Source Step = 1.90874%
Source Step = 2.17507%
Source Step = 2.44141%
Source Step = 2.70774%
vernier = 0.0131836
Source Step = 3.02734%
Source Step = 3.42685%
Source Step = 3.82635%
Source Step = 4.22585%
Source Step = 4.62536%
vernier = 0.0197754
Source Step = 5.08478%
Source Step = 5.68404%
Source Step = 6.28329%
Source Step = 6.88255%
Source Step = 7.4818%
vernier = 0.0296631
Source Step = 8.14098%
Source Step = 9.03986%
Source Step = 9.93874%
Source Step = 10.8376%
Source Step = 11.7365%
vernier = 0.0444946
Source Step = 12.6803%
Source Step = 14.0287%
Source Step = 15.377%
Source Step = 16.0764%
Source Step = 16.1607%
Source Step = 16.245%
Source Step = 16.3292%
Source Step = 16.4135%
vernier = 0.00417137
Source Step = 16.502%
Source Step = 16.6284%
Source Step = 16.7548%
Source Step = 16.8812%
Source Step = 17.0076%
Source Step = 17.134%
vernier = 0.00625706
Source Step = 17.3236%
Source Step = 17.5132%
Source Step = 17.7028%
Source Step = 17.8924%
Source Step = 18.082%
vernier = 0.00938559
Source Step = 18.357%
Source Step = 18.6414%
Source Step = 18.9258%
Source Step = 19.0538%
Source Step = 19.1249%
Source Step = 19.196%
Source Step = 19.2671%
Source Step = 19.3382%
vernier = 0.00351959
Source Step = 19.4235%
Source Step = 19.5302%
Source Step = 19.6368%
Source Step = 19.7435%
Source Step = 19.8501%
vernier = 0.00527939
Source Step = 19.9728%
Source Step = 20.1328%
Source Step = 20.2928%
Source Step = 20.4527%
Source Step = 20.6127%
vernier = 0.00791909
Source Step = 20.7887%
Source Step = 21.0287%
Source Step = 21.2686%
Source Step = 21.5086%
Source Step = 21.7486%
vernier = 0.0118786
Source Step = 22.0006%
Source Step = 22.3605%
Source Step = 22.7205%
Source Step = 23.0804%
Source Step = 23.4404%
Source Step = 23.8004%
vernier = 0.0178179
Source Step = 24.3403%
Source Step = 24.8802%
Source Step = 25.4202%
Source Step = 25.9601%
Source Step = 26.5%
vernier = 0.0267269
Source Step = 27.2829%
Source Step = 28.0929%
Source Step = 28.9028%
Source Step = 29.7127%
Source Step = 30.5226%
vernier = 0.0400904
Source Step = 31.6564%
Source Step = 32.8713%
Source Step = 34.0862%
Source Step = 35.0884%
Source Step = 35.1568%
Source Step = 35.2327%
Source Step = 35.3086%
Source Step = 35.3845%
Source Step = 35.4605%
vernier = 0.00375847
Source Step = 35.5402%
Source Step = 35.6541%
Source Step = 35.768%
Source Step = 35.8819%
Source Step = 35.9958%
Source Step = 36.1097%
vernier = 0.00563771
Source Step = 36.2805%
Source Step = 36.4513%
Source Step = 36.6222%
Source Step = 36.793%
Source Step = 36.9639%
vernier = 0.00845657
Source Step = 37.2116%
Source Step = 37.4678%
Source Step = 37.7241%
Source Step = 37.9804%
Source Step = 38.2366%
vernier = 0.0126848
Source Step = 38.5954%
Source Step = 38.9798%
Source Step = 39.3642%
Source Step = 39.7486%
Source Step = 40.1329%
vernier = 0.0190273
Source Step = 40.6519%
Source Step = 41.2285%
Source Step = 41.805%
Source Step = 42.3816%
Source Step = 42.9582%
vernier = 0.0285409
Source Step = 43.7078%
Source Step = 44.5726%
Source Step = 45.4375%
Source Step = 46.3024%
Source Step = 47.1673%
vernier = 0.0428114
Source Step = 48.2484%
Source Step = 49.5457%
Source Step = 50.843%
Source Step = 52.1403%
Source Step = 53.4376%
vernier = 0.064217
Source Step = 54.9944%
Source Step = 56.9404%
Source Step = 58.8863%
Source Step = 60.8323%
Source Step = 62.7783%
vernier = 0.0963256
Source Step = 65.0161%
Source Step = 67.9351%
Source Step = 70.8541%
Source Step = 73.773%
Source Step = 76.692%
vernier = 0.144488
Source Step = 79.9028%
Source Step = 84.2813%
Source Step = 88.6597%
Source Step = 92.2719%
vernier = 0.00903052
Starting source stepping with srcstepmethod=1
Source Step = 3.0303%
Source Step = 8.04924%
Source stepping failed

Pseudo Transient succeeded in finding the operating point at 722.394 ms.
