LTspice 24.1.10 for Windows
Circuit: C:\Users\jpulu\OneDrive\Área de Trabalho\TCC\circuit_filter_1.net
Start Time: Mon Dec 15 21:36:16 2025
solver = Normal
Maximum thread count: 12
tnom = 27
temp = 27
method = modified trap
CompressTranOnly = false
Compress1stOrder = false
Compress2ndOrder = false
Direct Newton iteration failed to find .op point.  (Use ".option noopiter" to skip.)
Starting Gmin stepping
Gmin = 10
Gmin = 1.07374
Gmin = 0.115292
Gmin = 0.0123794
Gmin = 0.00132923
vernier = 0.5
vernier = 0.25
vernier = 0.125
Gmin = 0.000604946
vernier = 0.0625
vernier = 0.03125
vernier = 0.015625
vernier = 0.0078125
Gmin = 0.000599087
vernier = 0.00390625
vernier = 0.00520833
Gmin = 0.000593847
vernier = 0.00694444
vernier = 0.00925925
Gmin = 0.000584057
vernier = 0.0123457
Gmin = 0.000568516
vernier = 0.0164609
vernier = 0.0219478
Gmin = 0.000543969
vernier = 0.0292638
vernier = 0.0390184
Gmin = 0.000507265
vernier = 0.0520245
Gmin = 0.000452997
vernier = 0.0693659
vernier = 0.0924879
Gmin = 0.000376617
vernier = 0.123317
vernier = 0.164423
Gmin = 0.000281516
vernier = 0.21923
vernier = 0.109615
Gmin = 0.000201345
vernier = 0.0548076
vernier = 0.0274038
vernier = 0.0137019
vernier = 0.00685095
Gmin = 0.000203022
vernier = 0.00342548
vernier = 0.0045673
Gmin = 0.000201579
vernier = 0.00608973
vernier = 0.00811964
Gmin = 0.000198485
vernier = 0.0108262
Gmin = 0.000193715
vernier = 0.0144349
vernier = 0.0192465
Gmin = 0.000185968
vernier = 0.025662
vernier = 0.0342161
Gmin = 0.000174263
vernier = 0.0456214
Gmin = 0.000157347
vernier = 0.0608285
vernier = 0.0811047
Gmin = 0.000132635
vernier = 0.10814
vernier = 0.144186
Gmin = 0.000101147
vernier = 0.192248
Gmin = 6.62392e-05
vernier = 0.25633
vernier = 0.341774
Gmin = 3.28726e-05
vernier = 0.455698
vernier = 0.227849
vernier = 0.113925
Gmin = 2.06848e-05
vernier = 0.0569623
vernier = 0.0284812
vernier = 0.0142406
vernier = 0.00712029
Gmin = 2.05748e-05
vernier = 0.00356014
vernier = 0.00178007
vernier = 0.000890036
Gmin = 2.05383e-05
vernier = 0.000445018
Gmin = 0
Gmin stepping failed

Starting source stepping with srcstepmethod=0
Source Step = 3.0303%
vernier = 0.25
Source Step = 0.378788%
Source Step = 0.852273%
Source Step = 1.32576%
Source Step = 1.79924%
Source Step = 2.27273%
vernier = 0.0234375
Source Step = 2.91193%
Source Step = 3.62216%
Source Step = 4.33239%
Source Step = 5.04261%
Source Step = 5.75284%
vernier = 0.0351562
Source Step = 6.67614%
Source Step = 7.74148%
Source Step = 8.80682%
Source Step = 8.86009%
Source Step = 8.92667%
Source Step = 8.99325%
Source Step = 9.05984%
Source Step = 9.12642%
vernier = 0.0032959
Source Step = 9.19633%
Source Step = 9.29621%
Source Step = 9.39608%
Source Step = 9.49596%
Source Step = 9.59584%
Source Step = 9.69571%
vernier = 0.00494385
Source Step = 9.84553%
Source Step = 9.99534%
Source Step = 10.1452%
Source Step = 10.295%
Source Step = 10.4448%
vernier = 0.00741577
Source Step = 10.662%
Source Step = 10.8867%
Source Step = 11.1115%
Source Step = 11.3362%
Source Step = 11.5609%
vernier = 0.0111237
Source Step = 11.8755%
Source Step = 12.2126%
Source Step = 12.5497%
Source Step = 12.8867%
Source Step = 13.2238%
vernier = 0.0166855
Source Step = 13.6789%
Source Step = 14.1845%
Source Step = 14.6901%
Source Step = 15.1957%
Source Step = 15.7014%
vernier = 0.0250282
Source Step = 16.3587%
Source Step = 17.1171%
Source Step = 17.8755%
Source Step = 18.634%
Source Step = 19.3924%
vernier = 0.0375423
Source Step = 20.3404%
Source Step = 21.4781%
Source Step = 22.6157%
Source Step = 23.7534%
Source Step = 24.891%
vernier = 0.0563135
Source Step = 26.2562%
Source Step = 27.9627%
Source Step = 29.6691%
Source Step = 31.3756%
Source Step = 33.0821%
vernier = 0.0844703
Source Step = 35.0445%
Source Step = 37.6042%
Source Step = 40.1639%
Source Step = 42.7236%
Source Step = 45.2833%
vernier = 0.126705
Source Step = 48.099%
Source Step = 51.9386%
Source Step = 55.7781%
Source Step = 59.6177%
Source Step = 63.4572%
vernier = 0.190058
Source Step = 67.4888%
Source Step = 73.2481%
Source Step = 79.0075%
Source Step = 84.7668%
Source Step = 90.5261%
Starting source stepping with srcstepmethod=1
Source Step = 3.0303%
Source Step = 8.39252%
vernier = 0.000976562
Source stepping failed

Pseudo Transient succeeded in finding the operating point at 722.395 ms.
