LTspice 24.1.10 for Windows
Circuit: C:\Users\jpulu\OneDrive\Ãrea de Trabalho\TCC\circuit.net
Start Time: Sat Nov 22 09:12:20 2025
solver = Normal
Maximum thread count: 12
tnom = 27
temp = 27
method = modified trap
Direct Newton iteration failed to find .op point.  (Use ".option noopiter" to skip.)
Starting Gmin stepping
Gmin = 10
Gmin = 1.07374
Gmin = 0.115292
Gmin = 0.0123794
Gmin = 0.00132923
vernier = 0.5
vernier = 0.25
Gmin = 0.000741688
vernier = 0.333333
vernier = 0.166667
vernier = 0.0833333
vernier = 0.0416667
vernier = 0.0208333
vernier = 0.0104167
Gmin = 0.000692634
vernier = 0.0138889
vernier = 0.0185185
Gmin = 0.000668653
vernier = 0.0246913
Gmin = 0.000632617
vernier = 0.0329218
vernier = 0.0438957
Gmin = 0.000576531
vernier = 0.0585276
vernier = 0.0780367
vernier = 0.0390184
Gmin = 0.000517001
vernier = 0.0195092
vernier = 0.00975459
vernier = 0.0130061
Gmin = 0.000505793
vernier = 0.0173415
vernier = 0.023122
Gmin = 0.000485253
vernier = 0.0308293
Gmin = 0.000453711
vernier = 0.0411057
vernier = 0.0548076
Gmin = 0.000406512
vernier = 0.0730768
vernier = 0.0365384
vernier = 0.0182692
vernier = 0.0091346
vernier = 0.0045673
Gmin = 0.00038936
vernier = 0.00608973
vernier = 0.00811964
Gmin = 0.000383725
vernier = 0.0108262
Gmin = 0.000374755
vernier = 0.0144349
vernier = 0.0192465
Gmin = 0.000360523
vernier = 0.025662
vernier = 0.0342161
Gmin = 0.00033909
vernier = 0.0456214
Gmin = 0.000307039
vernier = 0.0608285
vernier = 0.0304143
vernier = 0.0152071
vernier = 0.00760356
vernier = 0.00380178
Gmin = 0.000302425
vernier = 0.00506904
vernier = 0.00675872
Gmin = 0.000298336
vernier = 0.00901162
vernier = 0.0120155
Gmin = 0.000291971
vernier = 0.0160207
Gmin = 0.000281934
vernier = 0.0213609
vernier = 0.0284812
Gmin = 0.000266249
vernier = 0.0379749
vernier = 0.0506331
Gmin = 0.000243198
vernier = 0.0253166
vernier = 0.0126583
vernier = 0.00632914
vernier = 0.00316457
vernier = 0.00421943
Gmin = 0.000245046
vernier = 0.0056259
Gmin = 0.000242051
vernier = 0.0075012
vernier = 0.0100016
Gmin = 0.000237225
vernier = 0.0133355
vernier = 0.0177806
Gmin = 0.000229777
vernier = 0.0237075
Gmin = 0.000218195
vernier = 0.03161
vernier = 0.0421466
vernier = 0.0210733
vernier = 0.0105366
Gmin = 0.000206903
vernier = 0.00526832
vernier = 0.00263416
vernier = 0.00351222
Gmin = 0.000205681
vernier = 0.00468295
vernier = 0.00624394
Gmin = 0.000203387
vernier = 0.00832524
Gmin = 0.00019972
vernier = 0.0111003
vernier = 0.0148004
Gmin = 0.000193859
vernier = 0.0197339
vernier = 0.0263119
Gmin = 0.000184928
vernier = 0.0350825
Gmin = 0.000171318
vernier = 0.0467766
vernier = 0.0233883
vernier = 0.0116942
vernier = 0.00584708
vernier = 0.00292354
Gmin = 0.000169333
vernier = 0.00389805
vernier = 0.0051974
Gmin = 0.000167569
vernier = 0.00692986
vernier = 0.00923982
Gmin = 0.000164813
vernier = 0.0123198
Gmin = 0.000160436
vernier = 0.0164263
vernier = 0.0219018
Gmin = 0.000153523
vernier = 0.0292024
vernier = 0.0389365
Gmin = 0.000143185
vernier = 0.0194682
vernier = 0.00973411
vernier = 0.00486706
vernier = 0.00243353
vernier = 0.0032447
Gmin = 0.000144023
vernier = 0.00432627
Gmin = 0.000142667
vernier = 0.00576836
vernier = 0.00769114
Gmin = 0.000140474
vernier = 0.0102549
vernier = 0.0136731
Gmin = 0.000137069
vernier = 0.0182308
Gmin = 0.000131721
vernier = 0.0243078
vernier = 0.0324104
Gmin = 0.000123418
vernier = 0.0432138
vernier = 0.0216069
vernier = 0.0108035
vernier = 0.00540173
vernier = 0.00270086
vernier = 0.00135043
Gmin = 0.000120425
vernier = 0.00180058
Gmin = 0.000119939
vernier = 0.00240077
vernier = 0.00320102
Gmin = 0.000119126
vernier = 0.00426803
vernier = 0.0056907
Gmin = 0.000117841
vernier = 0.0075876
Gmin = 0.000115848
vernier = 0.0101168
vernier = 0.0134891
Gmin = 0.000112579
vernier = 0.0179854
vernier = 0.0239805
Gmin = 0.000107561
vernier = 0.0319741
Gmin = 0.00010012
vernier = 0.0426321
vernier = 0.021316
vernier = 0.010658
vernier = 0.00532901
vernier = 0.0026645
Gmin = 9.97877e-05
vernier = 0.00355267
vernier = 0.00473689
Gmin = 9.87888e-05
vernier = 0.00631586
vernier = 0.00842114
Gmin = 9.72169e-05
vernier = 0.0112282
Gmin = 9.47947e-05
vernier = 0.0149709
vernier = 0.0199612
Gmin = 9.08662e-05
vernier = 0.0266149
vernier = 0.0354866
Gmin = 8.49427e-05
vernier = 0.0473154
vernier = 0.0236577
vernier = 0.0118289
vernier = 0.00591443
vernier = 0.00295721
Gmin = 8.19335e-05
vernier = 0.00394295
Gmin = 8.12101e-05
vernier = 0.00525726
vernier = 0.00700968
Gmin = 8.00103e-05
vernier = 0.00934624
vernier = 0.0124617
Gmin = 7.81343e-05
vernier = 0.0166155
Gmin = 7.52726e-05
vernier = 0.022154
vernier = 0.0295387
Gmin = 7.07071e-05
vernier = 0.0393849
vernier = 0.0196925
vernier = 0.00984624
vernier = 0.00492312
vernier = 0.00246156
Gmin = 6.95458e-05
vernier = 0.00328208
vernier = 0.0043761
Gmin = 6.89683e-05
vernier = 0.0058348
Gmin = 6.80694e-05
vernier = 0.00777973
vernier = 0.010373
Gmin = 6.6587e-05
vernier = 0.0138306
vernier = 0.0184408
Gmin = 6.42911e-05
vernier = 0.0245878
Gmin = 6.08404e-05
vernier = 0.0327837
vernier = 0.0437116
vernier = 0.0218558
vernier = 0.0109279
vernier = 0.00546395
Gmin = 5.79325e-05
vernier = 0.00273197
vernier = 0.00364263
Gmin = 5.75252e-05
vernier = 0.00485684
vernier = 0.00647579
Gmin = 5.68199e-05
vernier = 0.00863438
Gmin = 5.57278e-05
vernier = 0.0115125
vernier = 0.01535
Gmin = 5.39423e-05
vernier = 0.0204667
vernier = 0.0272889
Gmin = 5.12151e-05
vernier = 0.0363852
vernier = 0.0181926
vernier = 0.00909629
vernier = 0.00454814
vernier = 0.00227407
Gmin = 4.98127e-05
vernier = 0.0030321
Gmin = 4.94741e-05
vernier = 0.00404279
vernier = 0.00539039
Gmin = 4.8911e-05
vernier = 0.00718718
vernier = 0.00958291
Gmin = 4.80264e-05
vernier = 0.0127772
Gmin = 4.66673e-05
vernier = 0.0170363
vernier = 0.022715
Gmin = 4.44735e-05
vernier = 0.0302867
vernier = 0.0403823
vernier = 0.0201911
Gmin = 4.20269e-05
vernier = 0.0100956
vernier = 0.00504778
vernier = 0.00252389
vernier = 0.00336519
Gmin = 4.18241e-05
vernier = 0.00448691
Gmin = 4.14042e-05
vernier = 0.00598255
vernier = 0.00797673
Gmin = 4.07089e-05
vernier = 0.0106356
vernier = 0.0141809
Gmin = 3.96247e-05
vernier = 0.0189078
Gmin = 3.79778e-05
vernier = 0.0252104
vernier = 0.0336138
vernier = 0.0168069
vernier = 0.00840346
vernier = 0.00420173
Gmin = 3.65728e-05
vernier = 0.00210087
vernier = 0.00280115
Gmin = 3.63749e-05
vernier = 0.00373487
vernier = 0.00497983
Gmin = 3.60314e-05
vernier = 0.00663977
Gmin = 3.54975e-05
vernier = 0.00885302
vernier = 0.011804
Gmin = 3.46193e-05
vernier = 0.0157387
vernier = 0.0209849
Gmin = 3.32645e-05
vernier = 0.0279799
Gmin = 3.12412e-05
vernier = 0.0373065
vernier = 0.0186532
vernier = 0.00932662
vernier = 0.00466331
vernier = 0.00233166
Gmin = 3.11503e-05
vernier = 0.00310887
vernier = 0.00414516
Gmin = 3.08773e-05
vernier = 0.00552688
vernier = 0.00736918
Gmin = 3.04469e-05
vernier = 0.00982557
Gmin = 2.97819e-05
vernier = 0.0131008
vernier = 0.0174677
Gmin = 2.86987e-05
vernier = 0.0232902
vernier = 0.0310536
Gmin = 2.7054e-05
vernier = 0.0414048
vernier = 0.0207024
Gmin = 2.56939e-05
vernier = 0.0276032
vernier = 0.0368043
vernier = 0.0184021
Gmin = 2.4416e-05
vernier = 0.0245362
Gmin = 2.31082e-05
vernier = 0.0327149
vernier = 0.0163574
vernier = 0.0218099
Gmin = 2.22751e-05
vernier = 0.0290799
vernier = 0.0387732
Gmin = 2.07812e-05
vernier = 0.0193866
vernier = 0.0258488
Gmin = 1.99605e-05
vernier = 0.034465
vernier = 0.0172325
vernier = 0.0229767
Gmin = 1.91758e-05
vernier = 0.0306356
Gmin = 1.79369e-05
vernier = 0.0408474
vernier = 0.0204237
vernier = 0.0272316
Gmin = 1.71191e-05
vernier = 0.0363088
vernier = 0.0181544
Gmin = 1.63617e-05
vernier = 0.0242058
vernier = 0.0322745
vernier = 0.0161372
Gmin = 1.56456e-05
vernier = 0.0215163
Gmin = 1.4908e-05
vernier = 0.0286884
vernier = 0.0382512
vernier = 0.0191256
Gmin = 1.41467e-05
vernier = 0.0255008
vernier = 0.034001
Gmin = 1.33108e-05
vernier = 0.0170005
vernier = 0.0226673
Gmin = 1.28485e-05
vernier = 0.0302231
vernier = 0.0402975
vernier = 0.0201487
Gmin = 1.21431e-05
vernier = 0.026865
Gmin = 1.14521e-05
vernier = 0.03582
vernier = 0.01791
vernier = 0.02388
Gmin = 1.09928e-05
vernier = 0.03184
vernier = 0.01592
Gmin = 1.05649e-05
vernier = 0.0212266
vernier = 0.0283022
Gmin = 9.98076e-06
vernier = 0.0377362
vernier = 0.0188681
Gmin = 9.54462e-06
vernier = 0.0251575
vernier = 0.0335433
vernier = 0.0167716
Gmin = 9.11564e-06
vernier = 0.0223622
vernier = 0.0298162
Gmin = 8.64138e-06
vernier = 0.039755
vernier = 0.0198775
Gmin = 8.20349e-06
vernier = 0.0265033
vernier = 0.0353377
vernier = 0.0176689
Gmin = 7.80701e-06
vernier = 0.0235585
Gmin = 7.41587e-06
vernier = 0.0314113
vernier = 0.0418817
vernier = 0.0209409
Gmin = 6.9978e-06
vernier = 0.0279211
Gmin = 6.57302e-06
vernier = 0.0372282
vernier = 0.0186141
vernier = 0.0248188
Gmin = 6.30412e-06
vernier = 0.0330917
vernier = 0.0165459
Gmin = 6.0618e-06
vernier = 0.0220611
vernier = 0.0294148
Gmin = 5.69563e-06
vernier = 0.0392198
vernier = 0.0196099
vernier = 0.0261465
Gmin = 5.44162e-06
vernier = 0.034862
vernier = 0.017431
Gmin = 5.19894e-06
vernier = 0.0232413
vernier = 0.0309884
Gmin = 4.90161e-06
vernier = 0.0413179
vernier = 0.0206589
Gmin = 4.65568e-06
vernier = 0.0275453
vernier = 0.036727
vernier = 0.0183635
Gmin = 4.4246e-06
vernier = 0.0244847
Gmin = 4.18809e-06
vernier = 0.0326462
vernier = 0.0435283
vernier = 0.0217641
Gmin = 3.94568e-06
vernier = 0.0290188
vernier = 0.0386918
Gmin = 3.68159e-06
vernier = 0.0193459
vernier = 0.00967294
vernier = 0.0128973
Gmin = 3.63728e-06
vernier = 0.0171963
vernier = 0.0229284
Gmin = 3.49078e-06
vernier = 0.0305712
Gmin = 3.26571e-06
vernier = 0.0407616
vernier = 0.0203808
vernier = 0.0101904
vernier = 0.0135872
Gmin = 3.18914e-06
vernier = 0.0181163
Gmin = 3.06547e-06
vernier = 0.024155
vernier = 0.0322067
Gmin = 2.87341e-06
vernier = 0.0429423
vernier = 0.0214711
vernier = 0.0107356
Gmin = 2.77519e-06
vernier = 0.0143141
vernier = 0.0190854
Gmin = 2.67067e-06
vernier = 0.0254472
vernier = 0.0339297
Gmin = 2.51319e-06
vernier = 0.0452395
vernier = 0.0226198
vernier = 0.0113099
Gmin = 2.39569e-06
vernier = 0.0150798
vernier = 0.0201064
Gmin = 2.31084e-06
vernier = 0.0268086
Gmin = 2.1796e-06
vernier = 0.0357448
vernier = 0.0476597
vernier = 0.0238298
vernier = 0.0119149
Gmin = 2.05255e-06
vernier = 0.0158866
Gmin = 1.98256e-06
vernier = 0.0211821
vernier = 0.0282428
vernier = 0.0141214
vernier = 0.00706069
Gmin = 1.91312e-06
vernier = 0.00941425
Gmin = 1.87417e-06
vernier = 0.0125523
vernier = 0.0167364
Gmin = 1.81211e-06
vernier = 0.0223152
vernier = 0.0297536
Gmin = 1.71802e-06
vernier = 0.0148768
vernier = 0.00743841
vernier = 0.00991788
Gmin = 1.7021e-06
vernier = 0.0132238
vernier = 0.0176318
Gmin = 1.64911e-06
vernier = 0.023509
Gmin = 1.56666e-06
vernier = 0.0313454
vernier = 0.0156727
vernier = 0.00783634
vernier = 0.0104485
Gmin = 1.53832e-06
vernier = 0.0139313
Gmin = 1.49221e-06
vernier = 0.018575
vernier = 0.0247667
Gmin = 1.41973e-06
vernier = 0.0330222
vernier = 0.0440296
Gmin = 1.31216e-06
vernier = 0.0220148
vernier = 0.0110074
vernier = 0.0146765
Gmin = 1.2942e-06
vernier = 0.0195687
vernier = 0.0260916
Gmin = 1.23506e-06
vernier = 0.0347888
Gmin = 1.1449e-06
vernier = 0.0463851
vernier = 0.0231925
vernier = 0.0115963
vernier = 0.0154617
Gmin = 1.11441e-06
vernier = 0.0206156
Gmin = 1.06538e-06
vernier = 0.0274874
vernier = 0.0366499
Gmin = 9.89791e-07
vernier = 0.0488665
vernier = 0.0244333
vernier = 0.0122166
vernier = 0.00610832
Gmin = 9.58676e-07
vernier = 0.00814442
vernier = 0.0108592
Gmin = 9.39056e-07
vernier = 0.014479
Gmin = 9.09006e-07
vernier = 0.0193053
vernier = 0.0257404
Gmin = 8.60751e-07
vernier = 0.0343205
vernier = 0.0171602
vernier = 0.00858012
Gmin = 8.40723e-07
vernier = 0.0114402
vernier = 0.0152535
Gmin = 8.13953e-07
vernier = 0.020338
vernier = 0.0271174
Gmin = 7.73053e-07
vernier = 0.0361565
Gmin = 7.12892e-07
vernier = 0.0482087
vernier = 0.0241043
vernier = 0.0120522
vernier = 0.00602608
vernier = 0.00803477
Gmin = 7.06128e-07
vernier = 0.010713
Gmin = 6.89792e-07
vernier = 0.014284
vernier = 0.0190454
Gmin = 6.63864e-07
vernier = 0.0253938
vernier = 0.0338584
Gmin = 6.24798e-07
vernier = 0.0169292
vernier = 0.00846461
vernier = 0.0112861
Gmin = 6.18214e-07
vernier = 0.0150482
vernier = 0.0200642
Gmin = 5.96362e-07
vernier = 0.0267523
Gmin = 5.62562e-07
vernier = 0.0356697
vernier = 0.0178349
vernier = 0.00891743
vernier = 0.0118899
Gmin = 5.50999e-07
vernier = 0.0158532
Gmin = 5.32251e-07
vernier = 0.0211376
vernier = 0.0281835
vernier = 0.0140917
vernier = 0.00704587
Gmin = 5.13648e-07
vernier = 0.00939449
Gmin = 5.0321e-07
vernier = 0.012526
vernier = 0.0167013
Gmin = 4.86581e-07
vernier = 0.0222684
vernier = 0.0296912
Gmin = 4.61369e-07
vernier = 0.0148456
vernier = 0.0074228
vernier = 0.00989706
Gmin = 4.57103e-07
vernier = 0.0131961
vernier = 0.0175948
Gmin = 4.42901e-07
vernier = 0.0234597
Gmin = 4.20802e-07
vernier = 0.0312796
vernier = 0.0156398
vernier = 0.00781989
vernier = 0.0104265
Gmin = 4.13205e-07
vernier = 0.013902
Gmin = 4.00848e-07
vernier = 0.018536
vernier = 0.0247147
Gmin = 3.81417e-07
vernier = 0.0329529
vernier = 0.0164765
vernier = 0.00823823
Gmin = 3.71365e-07
vernier = 0.0109843
vernier = 0.0146457
Gmin = 3.60578e-07
vernier = 0.0195276
vernier = 0.0260368
Gmin = 3.44136e-07
vernier = 0.0347158
vernier = 0.0173579
vernier = 0.00867895
Gmin = 3.3171e-07
vernier = 0.0115719
vernier = 0.0154292
Gmin = 3.22653e-07
vernier = 0.0205723
Gmin = 3.08486e-07
vernier = 0.0274297
vernier = 0.036573
vernier = 0.0182865
vernier = 0.00914324
Gmin = 2.94578e-07
vernier = 0.00457162
vernier = 0.00609549
Gmin = 2.91122e-07
vernier = 0.00812732
vernier = 0.0108364
Gmin = 2.85176e-07
vernier = 0.0144486
Gmin = 2.76069e-07
vernier = 0.0192647
vernier = 0.0256863
Gmin = 2.61444e-07
vernier = 0.0342484
vernier = 0.0171242
vernier = 0.00856211
Gmin = 2.55373e-07
vernier = 0.0114161
vernier = 0.0152215
Gmin = 2.47258e-07
vernier = 0.0202953
vernier = 0.0270605
Gmin = 2.34859e-07
vernier = 0.0360806
vernier = 0.0180403
vernier = 0.00902015
vernier = 0.00451008
Gmin = 2.28095e-07
vernier = 0.00601343
vernier = 0.00801791
Gmin = 2.24835e-07
vernier = 0.0106905
Gmin = 2.19644e-07
vernier = 0.0142541
vernier = 0.0190054
Gmin = 2.11405e-07
vernier = 0.0253405
vernier = 0.0337874
Gmin = 1.9899e-07
vernier = 0.0168937
vernier = 0.00844684
vernier = 0.0112624
Gmin = 1.96897e-07
vernier = 0.0150166
vernier = 0.0200221
Gmin = 1.89952e-07
vernier = 0.0266962
Gmin = 1.79208e-07
vernier = 0.0355949
vernier = 0.0177974
vernier = 0.00889872
vernier = 0.00444936
Gmin = 1.77033e-07
vernier = 0.00593248
vernier = 0.00790997
Gmin = 1.74085e-07
vernier = 0.0105466
vernier = 0.0140622
Gmin = 1.69487e-07
vernier = 0.0187495
Gmin = 1.625e-07
vernier = 0.0249994
vernier = 0.0333325
vernier = 0.0166662
vernier = 0.00833312
Gmin = 1.56212e-07
vernier = 0.0111108
Gmin = 1.5236e-07
vernier = 0.0148144
vernier = 0.0197526
Gmin = 1.4611e-07
vernier = 0.0263368
vernier = 0.0351157
vernier = 0.0175578
Gmin = 1.39092e-07
vernier = 0.00877892
vernier = 0.0117052
Gmin = 1.35977e-07
vernier = 0.015607
vernier = 0.0208093
Gmin = 1.30699e-07
vernier = 0.0277457
Gmin = 1.22814e-07
vernier = 0.0369942
vernier = 0.0184971
vernier = 0.00924856
vernier = 0.00462428
vernier = 0.0061657
Gmin = 1.21918e-07
vernier = 0.00822094
Gmin = 1.19747e-07
vernier = 0.0109612
vernier = 0.014615
Gmin = 1.16276e-07
vernier = 0.0194866
vernier = 0.0259822
Gmin = 1.10985e-07
vernier = 0.0346429
vernier = 0.0173215
vernier = 0.00866073
Gmin = 1.06986e-07
vernier = 0.0115476
vernier = 0.0153968
Gmin = 1.04071e-07
vernier = 0.0205291
Gmin = 9.95107e-08
vernier = 0.0273722
vernier = 0.0364962
vernier = 0.0182481
vernier = 0.00912405
Gmin = 9.50333e-08
vernier = 0.00456202
vernier = 0.0060827
Gmin = 9.39206e-08
vernier = 0.00811026
vernier = 0.0108137
Gmin = 9.20064e-08
vernier = 0.0144182
Gmin = 8.90743e-08
vernier = 0.0192243
vernier = 0.0256324
Gmin = 8.4365e-08
vernier = 0.0341765
vernier = 0.0170883
vernier = 0.00854413
Gmin = 8.24102e-08
vernier = 0.0113922
vernier = 0.0151896
Gmin = 7.97968e-08
vernier = 0.0202527
vernier = 0.0270037
Gmin = 7.58035e-08
vernier = 0.0360049
vernier = 0.0180024
vernier = 0.00900122
vernier = 0.00450061
Gmin = 7.36248e-08
vernier = 0.00600081
vernier = 0.00800108
Gmin = 7.25747e-08
vernier = 0.0106681
Gmin = 7.09026e-08
vernier = 0.0142241
vernier = 0.0189655
Gmin = 6.82485e-08
vernier = 0.0252873
vernier = 0.0337164
Gmin = 6.42486e-08
vernier = 0.0168582
vernier = 0.00842911
vernier = 0.0112388
Gmin = 6.35744e-08
vernier = 0.0149851
vernier = 0.0199801
Gmin = 6.13365e-08
vernier = 0.0266401
Gmin = 5.78742e-08
vernier = 0.0355201
vernier = 0.0177601
vernier = 0.00888004
vernier = 0.00444002
Gmin = 5.71733e-08
vernier = 0.00592002
vernier = 0.00789336
Gmin = 5.62231e-08
vernier = 0.0105245
vernier = 0.0140326
Gmin = 5.47411e-08
vernier = 0.0187102
Gmin = 5.24892e-08
vernier = 0.0249469
vernier = 0.0332625
vernier = 0.0166313
vernier = 0.00831563
vernier = 0.00415781
Gmin = 5.05672e-08
vernier = 0.00554375
Gmin = 4.99581e-08
vernier = 0.00739167
vernier = 0.00985555
Gmin = 4.89764e-08
vernier = 0.0131407
vernier = 0.017521
Gmin = 4.74609e-08
vernier = 0.0233613
Gmin = 4.51025e-08
vernier = 0.0311484
vernier = 0.0415312
vernier = 0.0207656
vernier = 0.0103828
Gmin = 4.28015e-08
vernier = 0.0051914
vernier = 0.00692186
Gmin = 4.22317e-08
vernier = 0.00922914
vernier = 0.0123055
Gmin = 4.12538e-08
vernier = 0.0164074
Gmin = 3.97613e-08
vernier = 0.0218765
vernier = 0.0291686
Gmin = 3.73789e-08
vernier = 0.0388915
vernier = 0.0194457
vernier = 0.00972287
vernier = 0.00486144
Gmin = 3.66611e-08
vernier = 0.00648191
vernier = 0.00864255
Gmin = 3.60286e-08
vernier = 0.0115234
vernier = 0.0153645
Gmin = 3.50489e-08
vernier = 0.020486
Gmin = 3.35163e-08
vernier = 0.0273147
vernier = 0.0364196
vernier = 0.0182098
vernier = 0.0091049
Gmin = 3.20114e-08
vernier = 0.00455245
vernier = 0.00606993
Gmin = 3.16374e-08
vernier = 0.00809324
vernier = 0.010791
Gmin = 3.09939e-08
vernier = 0.014388
Gmin = 3.00082e-08
vernier = 0.019184
vernier = 0.0255786
Gmin = 2.84249e-08
vernier = 0.0341048
vernier = 0.045473
Gmin = 2.60748e-08
vernier = 0.0606307
vernier = 0.0303154
vernier = 0.0151577
vernier = 0.00757884
vernier = 0.00378942
Gmin = 2.48985e-08
vernier = 0.00505256
Gmin = 2.46172e-08
vernier = 0.00673674
vernier = 0.00898232
Gmin = 2.41522e-08
vernier = 0.0119764
vernier = 0.0159686
Gmin = 2.34292e-08
vernier = 0.0212914
Gmin = 2.23359e-08
vernier = 0.0283885
vernier = 0.0378514
Gmin = 2.06164e-08
vernier = 0.0504685
vernier = 0.0672913
vernier = 0.0336457
Gmin = 1.87655e-08
vernier = 0.0448609
Gmin = 1.70198e-08
vernier = 0.0598145
vernier = 0.0299072
vernier = 0.0149536
vernier = 0.00747681
vernier = 0.0037384
Gmin = 1.67683e-08
vernier = 0.00498454
vernier = 0.00664605
Gmin = 1.65453e-08
vernier = 0.00886139
vernier = 0.0118152
Gmin = 1.61981e-08
vernier = 0.0157536
Gmin = 1.56503e-08
vernier = 0.0210048
vernier = 0.0280064
Gmin = 1.47938e-08
vernier = 0.0373418
vernier = 0.0497891
Gmin = 1.35333e-08
vernier = 0.0663854
vernier = 0.0331927
Gmin = 1.24101e-08
vernier = 0.0442569
vernier = 0.0590092
vernier = 0.0295046
Gmin = 1.14268e-08
vernier = 0.0147523
vernier = 0.00737615
vernier = 0.00983486
Gmin = 1.12389e-08
vernier = 0.0131131
vernier = 0.0174842
Gmin = 1.08918e-08
vernier = 0.0233123
Gmin = 1.03517e-08
vernier = 0.031083
vernier = 0.041444
Gmin = 9.52549e-09
vernier = 0.0552586
vernier = 0.0736782
Gmin = 8.35179e-09
vernier = 0.0368391
vernier = 0.0491188
Gmin = 7.73743e-09
vernier = 0.0654917
vernier = 0.0327458
vernier = 0.0436611
Gmin = 7.17095e-09
vernier = 0.0582148
Gmin = 6.3187e-09
vernier = 0.0776197
vernier = 0.0388098
vernier = 0.0517464
Gmin = 5.78391e-09
vernier = 0.0689952
Gmin = 4.95826e-09
vernier = 0.0919936
vernier = 0.0459968
vernier = 0.0229984
vernier = 0.0114992
vernier = 0.0153323
Gmin = 4.86893e-09
vernier = 0.020443
Gmin = 4.65647e-09
vernier = 0.0272574
vernier = 0.0363431
Gmin = 4.32875e-09
vernier = 0.0484575
vernier = 0.06461
Gmin = 3.85693e-09
vernier = 0.0861466
Gmin = 3.2002e-09
vernier = 0.114862
vernier = 0.153149
Gmin = 2.36156e-09
vernier = 0.204199
vernier = 0.272266
Gmin = 1.46524e-09
vernier = 0.363021
Gmin = 6.8278e-10
vernier = 0.484027
vernier = 0.64537
Gmin = 2.01383e-10
vernier = 0.860493
vernier = 1
Gmin = 3.19529e-11
Gmin = 3.43091e-12
Gmin = 3.68392e-13
Gmin = 0
Gmin stepping succeeded in finding the operating point.

Total elapsed time: 17.501 seconds.

Files loaded:
C:\Users\jpulu\OneDrive\Ãrea de Trabalho\TCC\circuit.net
C:\Users\jpulu\AppData\Local\LTspice\lib\sub\LT1015.sub
C:\Users\jpulu\AppData\Local\LTspice\lib\sub\UniversalOpAmp2.lib

