LTspice 24.1.10 for Windows
Circuit: C:\Users\Jo達o Pedro\Desktop\Modulador\circuit.net
Start Time: Fri Oct 24 13:32:22 2025
solver = Normal
Maximum thread count: 8
tnom = 27
temp = 27
method = modified trap
trtol = 1
CompressTranOnly = false
Compress1stOrder = false
Compress2ndOrder = false
Direct Newton iteration for .op point succeeded.
Total elapsed time: 4.015 seconds.

Files loaded:
C:\Users\Jo達o Pedro\Desktop\Modulador\circuit.net
C:\Users\Jo達o Pedro\AppData\Local\LTspice\lib\sub\LT1015.sub
C:\Users\Jo達o Pedro\AppData\Local\LTspice\lib\sub\UniversalOpAmp1.lib

