LTspice 24.1.10 for Windows
Circuit: C:\Users\João Pedro\Desktop\Modulador\saida\circuit_1.net
Start Time: Tue Oct 14 17:07:56 2025
solver = Normal
Maximum thread count: 8
tnom = 27
temp = 27
method = modified trap
trtol = 1
CompressTranOnly = false
Compress1stOrder = false
Compress2ndOrder = false
Direct Newton iteration for .op point succeeded.
Total elapsed time: 0.541 seconds.

Files loaded:
C:\Users\João Pedro\Desktop\Modulador\saida\circuit_1.net
C:\Users\João Pedro\AppData\Local\LTspice\lib\sub\LT1015.sub
C:\Users\João Pedro\AppData\Local\LTspice\lib\sub\LTC.lib
C:\Users\João Pedro\AppData\Local\LTspice\lib\sub\UniversalOpAmp1.lib

